Circuit: * C:\users\linus\My Documents\Electronics\BBQino\BBQino\Source Files\simulations\230Vpresence.asc

.OP point found by inspection.

Date: Thu Sep 23 15:41:46 2021
Total elapsed time: 0.086 seconds.

tnom = 27
temp = 27
method = modified trap
totiter = 2885
traniter = 2885
tranpoints = 1272
accept = 1185
rejected = 87
matrix size = 6
fillins = 2
solver = Normal
Matrix Compiler1: 360 bytes object code size  0.1/0.1/[0.1]
Matrix Compiler2: 462 bytes object code size  0.1/0.1/[0.1]

